Version 4
SHEET 1 880 680
WIRE -144 -80 -224 -80
WIRE -16 -80 -64 -80
WIRE 96 -80 -16 -80
WIRE 208 -80 96 -80
WIRE 304 -80 208 -80
WIRE -16 0 -16 -80
WIRE 208 0 208 -80
WIRE -224 64 -224 -80
WIRE 304 80 304 -80
WIRE 96 128 96 -80
WIRE -16 240 -16 64
WIRE 208 240 208 64
WIRE -224 320 -224 144
WIRE -16 320 -16 304
WIRE -16 320 -224 320
WIRE 96 320 96 208
WIRE 96 320 -16 320
WIRE 208 320 208 304
WIRE 208 320 96 320
WIRE 304 320 304 160
WIRE 304 320 208 320
SYMBOL ind 80 112 R0
SYMATTR InstName L1
SYMATTR Value ""
SYMBOL cap -32 0 R0
SYMATTR InstName C1
SYMATTR Value ""
SYMBOL res 288 64 R0
SYMATTR InstName RL
SYMATTR Value ""
SYMBOL res -48 -96 R90
WINDOW 0 0 56 VBottom 2
WINDOW 3 32 56 VTop 2
SYMATTR InstName Rg
SYMATTR Value ""
SYMBOL bv -224 48 R0
SYMATTR InstName B1
SYMBOL cap -32 240 R0
SYMATTR InstName C2
SYMATTR Value ""
SYMBOL cap 192 0 R0
SYMATTR InstName C3
SYMATTR Value ""
SYMBOL cap 192 240 R0
SYMATTR InstName C4
SYMATTR Value ""
